New Loadshape.Irradiancia1 npts=288 minterval=5 mult=(file=PV_profiles\profile_umalterado2.txt) 
//New Loadshape.Irradiancia1 npts=24 interval=1 mult=(file=PV_profiles\perfilnovo.txt) 

New Loadshape.Irradiancia2 npts=288 minterval=5 mult=(file=PV_profiles\profile_2.txt) 
New Loadshape.Irradiancia3 npts=288 minterval=5 mult=(file=PV_profiles\profile_3.txt) 
New Loadshape.Irradiancia4 npts=288 minterval=5 mult=(file=PV_profiles\profile_4.txt) 
New Loadshape.Irradiancia5 npts=288 minterval=5 mult=(file=PV_profiles\profile_5.txt)
New Loadshape.Irradiancia6 npts=288 minterval=5 mult=(file=PV_profiles\profile_6.txt)
New Loadshape.Irradiancia7 npts=288 minterval=5 mult=(file=PV_profiles\profile_7.txt)
New Loadshape.Irradiancia8 npts=288 minterval=5 mult=(file=PV_profiles\profile_8.txt)
New Loadshape.Irradiancia9 npts=288 minterval=5 mult=(file=PV_profiles\profile_9.txt)
New Loadshape.Irradiancia10 npts=288 minterval=5 mult=(file=PV_profiles\profile_10.txt)
New Loadshape.Irradiancia11 npts=288 minterval=5 mult=(file=PV_profiles\profile_11.txt)
New Loadshape.Irradiancia12 npts=288 minterval=5 mult=(file=PV_profiles\profile_12.txt)
New Loadshape.Irradiancia13 npts=288 minterval=5 mult=(file=PV_profiles\profile_13.txt)
New Loadshape.Irradiancia14 npts=288 minterval=5 mult=(file=PV_profiles\profile_14.txt)
New Loadshape.Irradiancia15 npts=288 minterval=5 mult=(file=PV_profiles\profile_15.txt) 
New Loadshape.Irradiancia16 npts=288 minterval=5 mult=(file=PV_profiles\profile_16.txt)
New Loadshape.Irradiancia17 npts=288 minterval=5 mult=(file=PV_profiles\profile_17.txt) 
New Loadshape.Irradiancia18 npts=288 minterval=5 mult=(file=PV_profiles\profile_18.txt)
New Loadshape.Irradiancia19 npts=288 minterval=5 mult=(file=PV_profiles\profile_19.txt) 
New Loadshape.Irradiancia20 npts=288 minterval=5 mult=(file=PV_profiles\profile_20.txt) 
New Loadshape.Irradiancia21 npts=288 minterval=5 mult=(file=PV_profiles\profile_21.txt) 
New Loadshape.Irradiancia22 npts=288 minterval=5 mult=(file=PV_profiles\profile_22.txt) 
New Loadshape.Irradiancia23 npts=288 minterval=5 mult=(file=PV_profiles\profile_23.txt)